<?xml version="1.0" encoding="UTF-8"?>

<!-- generated on 2022-01-31 10:22:31 by Eclipse SUMO netedit Version 1.10.0
<configuration xmlns:xsi="http://www.w3.org/2001/XMLSchema-instance" xsi:noNamespaceSchemaLocation="http://sumo.dlr.de/xsd/netconvertConfiguration.xsd">

    <input>
        <sumo-net-file value="/Users/drosdesd/omnetpp-5.7_old/samples/containerVehicles/simulations/sumo-scenario/intersections.net.xml"/>
    </input>

    <output>
        <output-file value="/Users/drosdesd/omnetpp-5.7_old/samples/containerVehicles/simulations/sumo-scenario/intersections_slow.net.xml"/>
    </output>

    <processing>
        <geometry.min-radius.fix.railways value="false"/>
        <geometry.max-grade.fix value="false"/>
        <offset.disable-normalization value="true"/>
        <lefthand value="false"/>
    </processing>

    <junctions>
        <no-turnarounds value="true"/>
        <junctions.corner-detail value="5"/>
        <junctions.limit-turn-speed value="5.5"/>
        <rectangular-lane-cut value="false"/>
    </junctions>

    <pedestrian>
        <walkingareas value="false"/>
    </pedestrian>

    <report>
        <aggregate-warnings value="5"/>
    </report>

</configuration>
-->

<net version="1.9" junctionCornerDetail="5" limitTurnSpeed="5.50" xmlns:xsi="http://www.w3.org/2001/XMLSchema-instance" xsi:noNamespaceSchemaLocation="http://sumo.dlr.de/xsd/net_file.xsd">

    <location netOffset="0.00,0.00" convBoundary="0.00,0.00,400.00,200.00" origBoundary="-10000000000.00,-10000000000.00,10000000000.00,10000000000.00" projParameter="!"/>

    <edge id=":2_0" function="internal">
        <lane id=":2_0_0" index="0" speed="6.51" length="9.03" shape="95.20,110.40 94.85,107.95 93.80,106.20 92.05,105.15 89.60,104.80"/>
    </edge>
    <edge id=":2_1" function="internal">
        <lane id=":2_1_0" index="0" speed="13.89" length="20.80" shape="95.20,110.40 95.20,89.60"/>
        <lane id=":2_1_1" index="1" speed="13.89" length="20.80" shape="98.40,110.40 98.40,89.60"/>
    </edge>
    <edge id=":2_3" function="internal">
        <lane id=":2_3_0" index="0" speed="9.26" length="19.35" shape="98.40,110.40 99.15,105.15 101.40,101.40 105.15,99.15 110.40,98.40"/>
    </edge>
    <edge id=":2_4" function="internal">
        <lane id=":2_4_0" index="0" speed="6.51" length="9.03" shape="110.40,104.80 107.95,105.15 106.20,106.20 105.15,107.95 104.80,110.40"/>
    </edge>
    <edge id=":2_5" function="internal">
        <lane id=":2_5_0" index="0" speed="5.55" length="20.80" shape="110.40,104.80 89.60,104.80"/>
        <lane id=":2_5_1" index="1" speed="5.55" length="20.80" shape="110.40,101.60 89.60,101.60"/>
    </edge>
    <edge id=":2_7" function="internal">
        <lane id=":2_7_0" index="0" speed="9.26" length="5.08" shape="110.40,101.60 105.37,100.88"/>
    </edge>
    <edge id=":2_16" function="internal">
        <lane id=":2_16_0" index="0" speed="9.26" length="14.28" shape="105.37,100.88 105.15,100.85 101.40,98.60 99.15,94.85 98.40,89.60"/>
    </edge>
    <edge id=":2_8" function="internal">
        <lane id=":2_8_0" index="0" speed="6.51" length="9.03" shape="104.80,89.60 105.15,92.05 106.20,93.80 107.95,94.85 110.40,95.20"/>
    </edge>
    <edge id=":2_9" function="internal">
        <lane id=":2_9_0" index="0" speed="13.89" length="20.80" shape="104.80,89.60 104.80,110.40"/>
        <lane id=":2_9_1" index="1" speed="13.89" length="20.80" shape="101.60,89.60 101.60,110.40"/>
    </edge>
    <edge id=":2_11" function="internal">
        <lane id=":2_11_0" index="0" speed="9.26" length="19.35" shape="101.60,89.60 100.85,94.85 98.60,98.60 94.85,100.85 89.60,101.60"/>
    </edge>
    <edge id=":2_12" function="internal">
        <lane id=":2_12_0" index="0" speed="6.51" length="9.03" shape="89.60,95.20 92.05,94.85 93.80,93.80 94.85,92.05 95.20,89.60"/>
    </edge>
    <edge id=":2_13" function="internal">
        <lane id=":2_13_0" index="0" speed="5.55" length="20.80" shape="89.60,95.20 110.40,95.20"/>
        <lane id=":2_13_1" index="1" speed="5.55" length="20.80" shape="89.60,98.40 110.40,98.40"/>
    </edge>
    <edge id=":2_15" function="internal">
        <lane id=":2_15_0" index="0" speed="9.26" length="19.35" shape="89.60,98.40 94.85,99.15 98.60,101.40 100.85,105.15 101.60,110.40"/>
    </edge>
    <edge id=":3_0" function="internal">
        <lane id=":3_0_0" index="0" speed="5.55" length="0.10" shape="200.00,104.80 200.00,104.80"/>
        <lane id=":3_0_1" index="1" speed="5.55" length="0.10" shape="200.00,101.60 200.00,101.60"/>
    </edge>
    <edge id=":3_2" function="internal">
        <lane id=":3_2_0" index="0" speed="5.55" length="0.10" shape="200.00,95.20 200.00,95.20"/>
        <lane id=":3_2_1" index="1" speed="5.55" length="0.10" shape="200.00,98.40 200.00,98.40"/>
    </edge>
    <edge id=":4_0" function="internal">
        <lane id=":4_0_0" index="0" speed="6.51" length="9.03" shape="295.20,110.40 294.85,107.95 293.80,106.20 292.05,105.15 289.60,104.80"/>
    </edge>
    <edge id=":4_1" function="internal">
        <lane id=":4_1_0" index="0" speed="13.89" length="20.80" shape="295.20,110.40 295.20,89.60"/>
        <lane id=":4_1_1" index="1" speed="13.89" length="20.80" shape="298.40,110.40 298.40,89.60"/>
    </edge>
    <edge id=":4_3" function="internal">
        <lane id=":4_3_0" index="0" speed="9.26" length="6.96" shape="298.40,110.40 299.15,105.15 300.00,103.73"/>
    </edge>
    <edge id=":4_16" function="internal">
        <lane id=":4_16_0" index="0" speed="9.26" length="12.40" shape="300.00,103.73 301.40,101.40 305.15,99.15 310.40,98.40"/>
    </edge>
    <edge id=":4_4" function="internal">
        <lane id=":4_4_0" index="0" speed="6.51" length="9.03" shape="310.40,104.80 307.95,105.15 306.20,106.20 305.15,107.95 304.80,110.40"/>
    </edge>
    <edge id=":4_5" function="internal">
        <lane id=":4_5_0" index="0" speed="5.55" length="20.80" shape="310.40,104.80 289.60,104.80"/>
        <lane id=":4_5_1" index="1" speed="5.55" length="20.80" shape="310.40,101.60 289.60,101.60"/>
    </edge>
    <edge id=":4_7" function="internal">
        <lane id=":4_7_0" index="0" speed="9.26" length="19.35" shape="310.40,101.60 305.15,100.85 301.40,98.60 299.15,94.85 298.40,89.60"/>
    </edge>
    <edge id=":4_8" function="internal">
        <lane id=":4_8_0" index="0" speed="6.51" length="9.03" shape="304.80,89.60 305.15,92.05 306.20,93.80 307.95,94.85 310.40,95.20"/>
    </edge>
    <edge id=":4_9" function="internal">
        <lane id=":4_9_0" index="0" speed="13.89" length="20.80" shape="304.80,89.60 304.80,110.40"/>
        <lane id=":4_9_1" index="1" speed="13.89" length="20.80" shape="301.60,89.60 301.60,110.40"/>
    </edge>
    <edge id=":4_11" function="internal">
        <lane id=":4_11_0" index="0" speed="9.26" length="6.96" shape="301.60,89.60 300.85,94.85 300.00,96.27"/>
    </edge>
    <edge id=":4_17" function="internal">
        <lane id=":4_17_0" index="0" speed="9.26" length="12.40" shape="300.00,96.27 298.60,98.60 294.85,100.85 289.60,101.60"/>
    </edge>
    <edge id=":4_12" function="internal">
        <lane id=":4_12_0" index="0" speed="6.51" length="9.03" shape="289.60,95.20 292.05,94.85 293.80,93.80 294.85,92.05 295.20,89.60"/>
    </edge>
    <edge id=":4_13" function="internal">
        <lane id=":4_13_0" index="0" speed="5.55" length="20.80" shape="289.60,95.20 310.40,95.20"/>
        <lane id=":4_13_1" index="1" speed="5.55" length="20.80" shape="289.60,98.40 310.40,98.40"/>
    </edge>
    <edge id=":4_15" function="internal">
        <lane id=":4_15_0" index="0" speed="9.26" length="19.35" shape="289.60,98.40 294.85,99.15 298.60,101.40 300.85,105.15 301.60,110.40"/>
    </edge>

    <edge id="E1_2" from="1" to="2" priority="1" length="100.00">
        <lane id="E1_2_0" index="0" speed="5.55" length="100.00" shape="0.00,95.20 89.60,95.20"/>
        <lane id="E1_2_1" index="1" speed="5.55" length="100.00" shape="0.00,98.40 89.60,98.40"/>
    </edge>
    <edge id="E2_1" from="2" to="1" priority="1" length="100.00">
        <lane id="E2_1_0" index="0" speed="5.55" length="100.00" shape="89.60,104.80 0.00,104.80"/>
        <lane id="E2_1_1" index="1" speed="5.55" length="100.00" shape="89.60,101.60 0.00,101.60"/>
    </edge>
    <edge id="E2_3" from="2" to="3" priority="1" length="100.00">
        <lane id="E2_3_0" index="0" speed="5.55" length="100.00" shape="110.40,95.20 200.00,95.20"/>
        <lane id="E2_3_1" index="1" speed="5.55" length="100.00" shape="110.40,98.40 200.00,98.40"/>
    </edge>
    <edge id="E2_6" from="2" to="6" priority="-1" length="50.00">
        <lane id="E2_6_0" index="0" speed="13.89" length="50.00" shape="104.80,110.40 104.80,200.00"/>
        <lane id="E2_6_1" index="1" speed="13.89" length="50.00" shape="101.60,110.40 101.60,200.00"/>
    </edge>
    <edge id="E2_8" from="2" to="8" priority="-1" length="50.00">
        <lane id="E2_8_0" index="0" speed="13.89" length="50.00" shape="95.20,89.60 95.20,0.00"/>
        <lane id="E2_8_1" index="1" speed="13.89" length="50.00" shape="98.40,89.60 98.40,0.00"/>
    </edge>
    <edge id="E3_2" from="3" to="2" priority="1" length="100.00">
        <lane id="E3_2_0" index="0" speed="5.55" length="100.00" shape="200.00,104.80 110.40,104.80"/>
        <lane id="E3_2_1" index="1" speed="5.55" length="100.00" shape="200.00,101.60 110.40,101.60"/>
    </edge>
    <edge id="E3_4" from="3" to="4" priority="-1" length="100.00">
        <lane id="E3_4_0" index="0" speed="5.55" length="100.00" shape="200.00,95.20 289.60,95.20"/>
        <lane id="E3_4_1" index="1" speed="5.55" length="100.00" shape="200.00,98.40 289.60,98.40"/>
    </edge>
    <edge id="E4_3" from="4" to="3" priority="-1" length="100.00">
        <lane id="E4_3_0" index="0" speed="5.55" length="100.00" shape="289.60,104.80 200.00,104.80"/>
        <lane id="E4_3_1" index="1" speed="5.55" length="100.00" shape="289.60,101.60 200.00,101.60"/>
    </edge>
    <edge id="E4_5" from="4" to="5" priority="-1" length="100.00">
        <lane id="E4_5_0" index="0" speed="5.55" length="100.00" shape="310.40,95.20 400.00,95.20"/>
        <lane id="E4_5_1" index="1" speed="5.55" length="100.00" shape="310.40,98.40 400.00,98.40"/>
    </edge>
    <edge id="E4_7" from="4" to="7" priority="-1" length="50.00">
        <lane id="E4_7_0" index="0" speed="13.89" length="50.00" shape="304.80,110.40 304.80,200.00"/>
        <lane id="E4_7_1" index="1" speed="13.89" length="50.00" shape="301.60,110.40 301.60,200.00"/>
    </edge>
    <edge id="E4_9" from="4" to="9" priority="-1" length="50.00">
        <lane id="E4_9_0" index="0" speed="13.89" length="50.00" shape="295.20,89.60 295.20,0.00"/>
        <lane id="E4_9_1" index="1" speed="13.89" length="50.00" shape="298.40,89.60 298.40,0.00"/>
    </edge>
    <edge id="E5_4" from="5" to="4" priority="-1" length="100.00">
        <lane id="E5_4_0" index="0" speed="5.55" length="100.00" shape="400.00,104.80 310.40,104.80"/>
        <lane id="E5_4_1" index="1" speed="5.55" length="100.00" shape="400.00,101.60 310.40,101.60"/>
    </edge>
    <edge id="E6_2" from="6" to="2" priority="1" length="50.00">
        <lane id="E6_2_0" index="0" speed="13.89" length="50.00" shape="95.20,200.00 95.20,110.40"/>
        <lane id="E6_2_1" index="1" speed="13.89" length="50.00" shape="98.40,200.00 98.40,110.40"/>
    </edge>
    <edge id="E7_4" from="7" to="4" priority="-1" length="50.00">
        <lane id="E7_4_0" index="0" speed="13.89" length="50.00" shape="295.20,200.00 295.20,110.40"/>
        <lane id="E7_4_1" index="1" speed="13.89" length="50.00" shape="298.40,200.00 298.40,110.40"/>
    </edge>
    <edge id="E8_2" from="8" to="2" priority="-1" length="50.00">
        <lane id="E8_2_0" index="0" speed="13.89" length="50.00" shape="104.80,0.00 104.80,89.60"/>
        <lane id="E8_2_1" index="1" speed="13.89" length="50.00" shape="101.60,0.00 101.60,89.60"/>
    </edge>
    <edge id="E9_4" from="9" to="4" priority="-1" length="50.00">
        <lane id="E9_4_0" index="0" speed="13.89" length="50.00" shape="304.80,0.00 304.80,89.60"/>
        <lane id="E9_4_1" index="1" speed="13.89" length="50.00" shape="301.60,0.00 301.60,89.60"/>
    </edge>

    <junction id="1" type="dead_end" x="0.00" y="100.00" incLanes="E2_1_0 E2_1_1" intLanes="" shape="0.00,100.00 0.00,106.40 0.00,100.00"/>
    <junction id="2" type="priority" x="100.00" y="100.00" incLanes="E6_2_0 E6_2_1 E3_2_0 E3_2_1 E8_2_0 E8_2_1 E1_2_0 E1_2_1" intLanes=":2_0_0 :2_1_0 :2_1_1 :2_3_0 :2_4_0 :2_5_0 :2_5_1 :2_16_0 :2_8_0 :2_9_0 :2_9_1 :2_11_0 :2_12_0 :2_13_0 :2_13_1 :2_15_0" shape="93.60,110.40 106.40,110.40 106.84,108.18 107.40,107.40 108.18,106.84 109.18,106.51 110.40,106.40 110.40,93.60 108.18,93.16 107.40,92.60 106.84,91.82 106.51,90.82 106.40,89.60 93.60,89.60 93.16,91.82 92.60,92.60 91.82,93.16 90.82,93.49 89.60,93.60 89.60,106.40 91.82,106.84 92.60,107.40 93.16,108.18 93.49,109.18">
        <request index="0"  response="0000000000000000" foes="0000000001100000" cont="0"/>
        <request index="1"  response="0000000000000000" foes="1111100011100000" cont="0"/>
        <request index="2"  response="0000000000000000" foes="1111100011100000" cont="0"/>
        <request index="3"  response="0000000000000000" foes="1110011011100000" cont="0"/>
        <request index="4"  response="0000000000000000" foes="0000011000000000" cont="0"/>
        <request index="5"  response="0000000000001111" foes="1000111000001111" cont="0"/>
        <request index="6"  response="0000000000001111" foes="1000111000001111" cont="0"/>
        <request index="7"  response="0000000000001110" foes="0110111000001110" cont="1"/>
        <request index="8"  response="0000000000000000" foes="0110000000000000" cont="0"/>
        <request index="9"  response="0000000011111000" foes="1110000011111000" cont="0"/>
        <request index="10" response="0000000011111000" foes="1110000011111000" cont="0"/>
        <request index="11" response="0000000011100110" foes="1110000011100110" cont="0"/>
        <request index="12" response="0000000000000110" foes="0000000000000110" cont="0"/>
        <request index="13" response="0000111110001110" foes="0000111110001110" cont="0"/>
        <request index="14" response="0000111110001110" foes="0000111110001110" cont="0"/>
        <request index="15" response="0000111001101110" foes="0000111001101110" cont="0"/>
    </junction>
    <junction id="3" type="priority" x="200.00" y="100.00" incLanes="E4_3_0 E4_3_1 E2_3_0 E2_3_1" intLanes=":3_0_0 :3_0_1 :3_2_0 :3_2_1" shape="200.00,106.40 200.00,93.60 200.00,106.40">
        <request index="0" response="0000" foes="0000" cont="0"/>
        <request index="1" response="0000" foes="0000" cont="0"/>
        <request index="2" response="0000" foes="0000" cont="0"/>
        <request index="3" response="0000" foes="0000" cont="0"/>
    </junction>
    <junction id="4" type="priority" x="300.00" y="100.00" incLanes="E7_4_0 E7_4_1 E5_4_0 E5_4_1 E9_4_0 E9_4_1 E3_4_0 E3_4_1" intLanes=":4_0_0 :4_1_0 :4_1_1 :4_16_0 :4_4_0 :4_5_0 :4_5_1 :4_7_0 :4_8_0 :4_9_0 :4_9_1 :4_17_0 :4_12_0 :4_13_0 :4_13_1 :4_15_0" shape="293.60,110.40 306.40,110.40 306.84,108.18 307.40,107.40 308.18,106.84 309.18,106.51 310.40,106.40 310.40,93.60 308.18,93.16 307.40,92.60 306.84,91.82 306.51,90.82 306.40,89.60 293.60,89.60 293.16,91.82 292.60,92.60 291.82,93.16 290.82,93.49 289.60,93.60 289.60,106.40 291.82,106.84 292.60,107.40 293.16,108.18 293.49,109.18">
        <request index="0"  response="0000000000000000" foes="0000000001100000" cont="0"/>
        <request index="1"  response="0000000000000000" foes="1111100011100000" cont="0"/>
        <request index="2"  response="0000000000000000" foes="1111100011100000" cont="0"/>
        <request index="3"  response="0000011000000000" foes="1110011011100000" cont="1"/>
        <request index="4"  response="0000011000000000" foes="0000011000000000" cont="0"/>
        <request index="5"  response="0000111000001111" foes="1000111000001111" cont="0"/>
        <request index="6"  response="0000111000001111" foes="1000111000001111" cont="0"/>
        <request index="7"  response="0110111000001110" foes="0110111000001110" cont="0"/>
        <request index="8"  response="0000000000000000" foes="0110000000000000" cont="0"/>
        <request index="9"  response="0000000000000000" foes="1110000011111000" cont="0"/>
        <request index="10" response="0000000000000000" foes="1110000011111000" cont="0"/>
        <request index="11" response="0000000000000110" foes="1110000011100110" cont="1"/>
        <request index="12" response="0000000000000110" foes="0000000000000110" cont="0"/>
        <request index="13" response="0000111100001110" foes="0000111110001110" cont="0"/>
        <request index="14" response="0000111100001110" foes="0000111110001110" cont="0"/>
        <request index="15" response="0000111001101110" foes="0000111001101110" cont="0"/>
    </junction>
    <junction id="5" type="dead_end" x="400.00" y="100.00" incLanes="E4_5_0 E4_5_1" intLanes="" shape="400.00,100.00 400.00,93.60 400.00,100.00"/>
    <junction id="6" type="dead_end" x="100.00" y="200.00" incLanes="E2_6_0 E2_6_1" intLanes="" shape="100.00,200.00 106.40,200.00 100.00,200.00"/>
    <junction id="7" type="dead_end" x="300.00" y="200.00" incLanes="E4_7_0 E4_7_1" intLanes="" shape="300.00,200.00 306.40,200.00 300.00,200.00"/>
    <junction id="8" type="dead_end" x="100.00" y="0.00" incLanes="E2_8_0 E2_8_1" intLanes="" shape="100.00,0.00 93.60,0.00 100.00,0.00"/>
    <junction id="9" type="dead_end" x="300.00" y="0.00" incLanes="E4_9_0 E4_9_1" intLanes="" shape="300.00,0.00 293.60,0.00 300.00,0.00"/>

    <junction id=":2_16_0" type="internal" x="105.37" y="100.88" incLanes=":2_7_0 E6_2_0 E6_2_1" intLanes=":2_1_0 :2_1_1 :2_3_0 :2_9_0 :2_9_1 :2_11_0 :2_12_0 :2_13_0 :2_13_1"/>
    <junction id=":4_16_0" type="internal" x="300.00" y="103.73" incLanes=":4_3_0 E9_4_0 E9_4_1" intLanes=":4_5_0 :4_5_1 :4_7_0 :4_8_0 :4_9_0 :4_9_1 :4_13_0 :4_13_1 :4_15_0"/>
    <junction id=":4_17_0" type="internal" x="300.00" y="96.27" incLanes=":4_11_0 E7_4_0 E7_4_1" intLanes=":4_0_0 :4_1_0 :4_1_1 :4_5_0 :4_5_1 :4_7_0 :4_13_0 :4_13_1 :4_15_0"/>

    <connection from="E1_2" to="E2_8" fromLane="0" toLane="0" via=":2_12_0" dir="r" state="m"/>
    <connection from="E1_2" to="E2_3" fromLane="0" toLane="0" via=":2_13_0" dir="s" state="m"/>
    <connection from="E1_2" to="E2_3" fromLane="1" toLane="1" via=":2_13_1" dir="s" state="m"/>
    <connection from="E1_2" to="E2_6" fromLane="1" toLane="1" via=":2_15_0" dir="l" state="m"/>
    <connection from="E2_3" to="E3_4" fromLane="0" toLane="0" via=":3_2_0" dir="s" state="M"/>
    <connection from="E2_3" to="E3_4" fromLane="1" toLane="1" via=":3_2_1" dir="s" state="M"/>
    <connection from="E3_2" to="E2_6" fromLane="0" toLane="0" via=":2_4_0" dir="r" state="M"/>
    <connection from="E3_2" to="E2_1" fromLane="0" toLane="0" via=":2_5_0" dir="s" state="m"/>
    <connection from="E3_2" to="E2_1" fromLane="1" toLane="1" via=":2_5_1" dir="s" state="m"/>
    <connection from="E3_2" to="E2_8" fromLane="1" toLane="1" via=":2_7_0" dir="l" state="m"/>
    <connection from="E3_4" to="E4_9" fromLane="0" toLane="0" via=":4_12_0" dir="r" state="m"/>
    <connection from="E3_4" to="E4_5" fromLane="0" toLane="0" via=":4_13_0" dir="s" state="m"/>
    <connection from="E3_4" to="E4_5" fromLane="1" toLane="1" via=":4_13_1" dir="s" state="m"/>
    <connection from="E3_4" to="E4_7" fromLane="1" toLane="1" via=":4_15_0" dir="l" state="m"/>
    <connection from="E4_3" to="E3_2" fromLane="0" toLane="0" via=":3_0_0" dir="s" state="M"/>
    <connection from="E4_3" to="E3_2" fromLane="1" toLane="1" via=":3_0_1" dir="s" state="M"/>
    <connection from="E5_4" to="E4_7" fromLane="0" toLane="0" via=":4_4_0" dir="r" state="m"/>
    <connection from="E5_4" to="E4_3" fromLane="0" toLane="0" via=":4_5_0" dir="s" state="m"/>
    <connection from="E5_4" to="E4_3" fromLane="1" toLane="1" via=":4_5_1" dir="s" state="m"/>
    <connection from="E5_4" to="E4_9" fromLane="1" toLane="1" via=":4_7_0" dir="l" state="m"/>
    <connection from="E6_2" to="E2_1" fromLane="0" toLane="0" via=":2_0_0" dir="r" state="M"/>
    <connection from="E6_2" to="E2_8" fromLane="0" toLane="0" via=":2_1_0" dir="s" state="M"/>
    <connection from="E6_2" to="E2_8" fromLane="1" toLane="1" via=":2_1_1" dir="s" state="M"/>
    <connection from="E6_2" to="E2_3" fromLane="1" toLane="1" via=":2_3_0" dir="l" state="M"/>
    <connection from="E7_4" to="E4_3" fromLane="0" toLane="0" via=":4_0_0" dir="r" state="M"/>
    <connection from="E7_4" to="E4_9" fromLane="0" toLane="0" via=":4_1_0" dir="s" state="M"/>
    <connection from="E7_4" to="E4_9" fromLane="1" toLane="1" via=":4_1_1" dir="s" state="M"/>
    <connection from="E7_4" to="E4_5" fromLane="1" toLane="1" via=":4_3_0" dir="l" state="m"/>
    <connection from="E8_2" to="E2_3" fromLane="0" toLane="0" via=":2_8_0" dir="r" state="M"/>
    <connection from="E8_2" to="E2_6" fromLane="0" toLane="0" via=":2_9_0" dir="s" state="m"/>
    <connection from="E8_2" to="E2_6" fromLane="1" toLane="1" via=":2_9_1" dir="s" state="m"/>
    <connection from="E8_2" to="E2_1" fromLane="1" toLane="1" via=":2_11_0" dir="l" state="m"/>
    <connection from="E9_4" to="E4_5" fromLane="0" toLane="0" via=":4_8_0" dir="r" state="M"/>
    <connection from="E9_4" to="E4_7" fromLane="0" toLane="0" via=":4_9_0" dir="s" state="M"/>
    <connection from="E9_4" to="E4_7" fromLane="1" toLane="1" via=":4_9_1" dir="s" state="M"/>
    <connection from="E9_4" to="E4_3" fromLane="1" toLane="1" via=":4_11_0" dir="l" state="m"/>

    <connection from=":2_0" to="E2_1" fromLane="0" toLane="0" dir="r" state="M"/>
    <connection from=":2_1" to="E2_8" fromLane="0" toLane="0" dir="s" state="M"/>
    <connection from=":2_1" to="E2_8" fromLane="1" toLane="1" dir="s" state="M"/>
    <connection from=":2_3" to="E2_3" fromLane="0" toLane="1" dir="l" state="M"/>
    <connection from=":2_4" to="E2_6" fromLane="0" toLane="0" dir="r" state="M"/>
    <connection from=":2_5" to="E2_1" fromLane="0" toLane="0" dir="s" state="M"/>
    <connection from=":2_5" to="E2_1" fromLane="1" toLane="1" dir="s" state="M"/>
    <connection from=":2_7" to="E2_8" fromLane="0" toLane="1" via=":2_16_0" dir="l" state="m"/>
    <connection from=":2_16" to="E2_8" fromLane="0" toLane="1" dir="l" state="M"/>
    <connection from=":2_8" to="E2_3" fromLane="0" toLane="0" dir="r" state="M"/>
    <connection from=":2_9" to="E2_6" fromLane="0" toLane="0" dir="s" state="M"/>
    <connection from=":2_9" to="E2_6" fromLane="1" toLane="1" dir="s" state="M"/>
    <connection from=":2_11" to="E2_1" fromLane="0" toLane="1" dir="l" state="M"/>
    <connection from=":2_12" to="E2_8" fromLane="0" toLane="0" dir="r" state="M"/>
    <connection from=":2_13" to="E2_3" fromLane="0" toLane="0" dir="s" state="M"/>
    <connection from=":2_13" to="E2_3" fromLane="1" toLane="1" dir="s" state="M"/>
    <connection from=":2_15" to="E2_6" fromLane="0" toLane="1" dir="l" state="M"/>
    <connection from=":3_0" to="E3_2" fromLane="0" toLane="0" dir="s" state="M"/>
    <connection from=":3_0" to="E3_2" fromLane="1" toLane="1" dir="s" state="M"/>
    <connection from=":3_2" to="E3_4" fromLane="0" toLane="0" dir="s" state="M"/>
    <connection from=":3_2" to="E3_4" fromLane="1" toLane="1" dir="s" state="M"/>
    <connection from=":4_0" to="E4_3" fromLane="0" toLane="0" dir="r" state="M"/>
    <connection from=":4_1" to="E4_9" fromLane="0" toLane="0" dir="s" state="M"/>
    <connection from=":4_1" to="E4_9" fromLane="1" toLane="1" dir="s" state="M"/>
    <connection from=":4_3" to="E4_5" fromLane="0" toLane="1" via=":4_16_0" dir="l" state="m"/>
    <connection from=":4_16" to="E4_5" fromLane="0" toLane="1" dir="l" state="M"/>
    <connection from=":4_4" to="E4_7" fromLane="0" toLane="0" dir="r" state="M"/>
    <connection from=":4_5" to="E4_3" fromLane="0" toLane="0" dir="s" state="M"/>
    <connection from=":4_5" to="E4_3" fromLane="1" toLane="1" dir="s" state="M"/>
    <connection from=":4_7" to="E4_9" fromLane="0" toLane="1" dir="l" state="M"/>
    <connection from=":4_8" to="E4_5" fromLane="0" toLane="0" dir="r" state="M"/>
    <connection from=":4_9" to="E4_7" fromLane="0" toLane="0" dir="s" state="M"/>
    <connection from=":4_9" to="E4_7" fromLane="1" toLane="1" dir="s" state="M"/>
    <connection from=":4_11" to="E4_3" fromLane="0" toLane="1" via=":4_17_0" dir="l" state="m"/>
    <connection from=":4_17" to="E4_3" fromLane="0" toLane="1" dir="l" state="M"/>
    <connection from=":4_12" to="E4_9" fromLane="0" toLane="0" dir="r" state="M"/>
    <connection from=":4_13" to="E4_5" fromLane="0" toLane="0" dir="s" state="M"/>
    <connection from=":4_13" to="E4_5" fromLane="1" toLane="1" dir="s" state="M"/>
    <connection from=":4_15" to="E4_7" fromLane="0" toLane="1" dir="l" state="M"/>

</net>
