<?xml version="1.0" encoding="UTF-8"?>

<!-- generated on Wed May 29 14:11:30 2019 by Eclipse SUMO netgenerate Version 1.0.1
<configuration xmlns:xsi="http://www.w3.org/2001/XMLSchema-instance" xsi:noNamespaceSchemaLocation="http://sumo.dlr.de/xsd/netgenerateConfiguration.xsd">

    <grid_network>
        <grid value="true"/>
        <grid.x-number value="6"/>
        <grid.y-number value="6"/>
        <grid.x-length value="100"/>
        <grid.y-length value="100"/>
        <grid.attach-length value="20"/>
    </grid_network>

    <output>
        <output-file value="/home/memedi/Desktop/c2x-man/manhattan.net.xml"/>
    </output>

    <building_defaults>
        <default.lanenumber value="3"/>
        <default-junction-type value="right_before_left"/>
    </building_defaults>

    <tls_building>
        <tls.unset value=""/>
    </tls_building>

    <junctions>
        <no-turnarounds value="true"/>
    </junctions>

    <random_number>
        <seed value="0"/>
    </random_number>

</configuration>
-->

<net version="1.0" junctionCornerDetail="5" limitTurnSpeed="5.50" xmlns:xsi="http://www.w3.org/2001/XMLSchema-instance" xsi:noNamespaceSchemaLocation="http://sumo.dlr.de/xsd/net_file.xsd">

    <location netOffset="0.00,0.00" convBoundary="0.00,0.00,540.00,540.00" origBoundary="0.00,0.00,540.00,540.00" projParameter="!"/>

    <edge id=":A0_0" function="internal">
        <lane id=":A0_0_0" index="0" speed="6.51" length="9.03" shape="12.00,33.60 11.65,31.15 10.60,29.40 8.85,28.35 6.40,28.00"/>
    </edge>
    <edge id=":A0_1" function="internal">
        <lane id=":A0_1_0" index="0" speed="13.89" length="27.20" shape="12.00,33.60 12.00,6.40"/>
        <lane id=":A0_1_1" index="1" speed="13.89" length="27.20" shape="15.20,33.60 15.20,6.40"/>
        <lane id=":A0_1_2" index="2" speed="13.89" length="27.20" shape="18.40,33.60 18.40,6.40"/>
    </edge>
    <edge id=":A0_4" function="internal">
        <lane id=":A0_4_0" index="0" speed="10.36" length="24.51" shape="18.40,33.60 19.35,26.95 22.20,22.20 26.95,19.35 33.60,18.40"/>
    </edge>
    <edge id=":A0_5" function="internal">
        <lane id=":A0_5_0" index="0" speed="6.51" length="9.03" shape="33.60,28.00 31.15,28.35 29.40,29.40 28.35,31.15 28.00,33.60"/>
    </edge>
    <edge id=":A0_6" function="internal">
        <lane id=":A0_6_0" index="0" speed="13.89" length="27.20" shape="33.60,28.00 6.40,28.00"/>
        <lane id=":A0_6_1" index="1" speed="13.89" length="27.20" shape="33.60,24.80 6.40,24.80"/>
        <lane id=":A0_6_2" index="2" speed="13.89" length="27.20" shape="33.60,21.60 6.40,21.60"/>
    </edge>
    <edge id=":A0_9" function="internal">
        <lane id=":A0_9_0" index="0" speed="10.36" length="24.51" shape="33.60,21.60 26.95,20.65 22.20,17.80 19.35,13.05 18.40,6.40"/>
    </edge>
    <edge id=":A0_10" function="internal">
        <lane id=":A0_10_0" index="0" speed="6.51" length="9.03" shape="28.00,6.40 28.35,8.85 29.40,10.60 31.15,11.65 33.60,12.00"/>
    </edge>
    <edge id=":A0_11" function="internal">
        <lane id=":A0_11_0" index="0" speed="13.89" length="27.20" shape="28.00,6.40 28.00,33.60"/>
        <lane id=":A0_11_1" index="1" speed="13.89" length="27.20" shape="24.80,6.40 24.80,33.60"/>
        <lane id=":A0_11_2" index="2" speed="13.89" length="27.20" shape="21.60,6.40 21.60,33.60"/>
    </edge>
    <edge id=":A0_14" function="internal">
        <lane id=":A0_14_0" index="0" speed="10.36" length="24.51" shape="21.60,6.40 20.65,13.05 17.80,17.80 13.05,20.65 6.40,21.60"/>
    </edge>
    <edge id=":A0_15" function="internal">
        <lane id=":A0_15_0" index="0" speed="6.51" length="9.03" shape="6.40,12.00 8.85,11.65 10.60,10.60 11.65,8.85 12.00,6.40"/>
    </edge>
    <edge id=":A0_16" function="internal">
        <lane id=":A0_16_0" index="0" speed="13.89" length="27.20" shape="6.40,12.00 33.60,12.00"/>
        <lane id=":A0_16_1" index="1" speed="13.89" length="27.20" shape="6.40,15.20 33.60,15.20"/>
        <lane id=":A0_16_2" index="2" speed="13.89" length="27.20" shape="6.40,18.40 33.60,18.40"/>
    </edge>
    <edge id=":A0_19" function="internal">
        <lane id=":A0_19_0" index="0" speed="10.36" length="24.51" shape="6.40,18.40 13.05,19.35 17.80,22.20 20.65,26.95 21.60,33.60"/>
    </edge>
    <edge id=":A1_0" function="internal">
        <lane id=":A1_0_0" index="0" speed="6.51" length="9.03" shape="12.00,133.60 11.65,131.15 10.60,129.40 8.85,128.35 6.40,128.00"/>
    </edge>
    <edge id=":A1_1" function="internal">
        <lane id=":A1_1_0" index="0" speed="13.89" length="27.20" shape="12.00,133.60 12.00,106.40"/>
        <lane id=":A1_1_1" index="1" speed="13.89" length="27.20" shape="15.20,133.60 15.20,106.40"/>
        <lane id=":A1_1_2" index="2" speed="13.89" length="27.20" shape="18.40,133.60 18.40,106.40"/>
    </edge>
    <edge id=":A1_4" function="internal">
        <lane id=":A1_4_0" index="0" speed="10.36" length="24.51" shape="18.40,133.60 19.35,126.95 22.20,122.20 26.95,119.35 33.60,118.40"/>
    </edge>
    <edge id=":A1_5" function="internal">
        <lane id=":A1_5_0" index="0" speed="6.51" length="9.03" shape="33.60,128.00 31.15,128.35 29.40,129.40 28.35,131.15 28.00,133.60"/>
    </edge>
    <edge id=":A1_6" function="internal">
        <lane id=":A1_6_0" index="0" speed="13.89" length="27.20" shape="33.60,128.00 6.40,128.00"/>
        <lane id=":A1_6_1" index="1" speed="13.89" length="27.20" shape="33.60,124.80 6.40,124.80"/>
        <lane id=":A1_6_2" index="2" speed="13.89" length="27.20" shape="33.60,121.60 6.40,121.60"/>
    </edge>
    <edge id=":A1_9" function="internal">
        <lane id=":A1_9_0" index="0" speed="10.36" length="24.51" shape="33.60,121.60 26.95,120.65 22.20,117.80 19.35,113.05 18.40,106.40"/>
    </edge>
    <edge id=":A1_10" function="internal">
        <lane id=":A1_10_0" index="0" speed="6.51" length="9.03" shape="28.00,106.40 28.35,108.85 29.40,110.60 31.15,111.65 33.60,112.00"/>
    </edge>
    <edge id=":A1_11" function="internal">
        <lane id=":A1_11_0" index="0" speed="13.89" length="27.20" shape="28.00,106.40 28.00,133.60"/>
        <lane id=":A1_11_1" index="1" speed="13.89" length="27.20" shape="24.80,106.40 24.80,133.60"/>
        <lane id=":A1_11_2" index="2" speed="13.89" length="27.20" shape="21.60,106.40 21.60,133.60"/>
    </edge>
    <edge id=":A1_14" function="internal">
        <lane id=":A1_14_0" index="0" speed="10.36" length="24.51" shape="21.60,106.40 20.65,113.05 17.80,117.80 13.05,120.65 6.40,121.60"/>
    </edge>
    <edge id=":A1_15" function="internal">
        <lane id=":A1_15_0" index="0" speed="6.51" length="9.03" shape="6.40,112.00 8.85,111.65 10.60,110.60 11.65,108.85 12.00,106.40"/>
    </edge>
    <edge id=":A1_16" function="internal">
        <lane id=":A1_16_0" index="0" speed="13.89" length="27.20" shape="6.40,112.00 33.60,112.00"/>
        <lane id=":A1_16_1" index="1" speed="13.89" length="27.20" shape="6.40,115.20 33.60,115.20"/>
        <lane id=":A1_16_2" index="2" speed="13.89" length="27.20" shape="6.40,118.40 33.60,118.40"/>
    </edge>
    <edge id=":A1_19" function="internal">
        <lane id=":A1_19_0" index="0" speed="10.36" length="24.51" shape="6.40,118.40 13.05,119.35 17.80,122.20 20.65,126.95 21.60,133.60"/>
    </edge>
    <edge id=":A2_0" function="internal">
        <lane id=":A2_0_0" index="0" speed="6.51" length="9.03" shape="12.00,233.60 11.65,231.15 10.60,229.40 8.85,228.35 6.40,228.00"/>
    </edge>
    <edge id=":A2_1" function="internal">
        <lane id=":A2_1_0" index="0" speed="13.89" length="27.20" shape="12.00,233.60 12.00,206.40"/>
        <lane id=":A2_1_1" index="1" speed="13.89" length="27.20" shape="15.20,233.60 15.20,206.40"/>
        <lane id=":A2_1_2" index="2" speed="13.89" length="27.20" shape="18.40,233.60 18.40,206.40"/>
    </edge>
    <edge id=":A2_4" function="internal">
        <lane id=":A2_4_0" index="0" speed="10.36" length="24.51" shape="18.40,233.60 19.35,226.95 22.20,222.20 26.95,219.35 33.60,218.40"/>
    </edge>
    <edge id=":A2_5" function="internal">
        <lane id=":A2_5_0" index="0" speed="6.51" length="9.03" shape="33.60,228.00 31.15,228.35 29.40,229.40 28.35,231.15 28.00,233.60"/>
    </edge>
    <edge id=":A2_6" function="internal">
        <lane id=":A2_6_0" index="0" speed="13.89" length="27.20" shape="33.60,228.00 6.40,228.00"/>
        <lane id=":A2_6_1" index="1" speed="13.89" length="27.20" shape="33.60,224.80 6.40,224.80"/>
        <lane id=":A2_6_2" index="2" speed="13.89" length="27.20" shape="33.60,221.60 6.40,221.60"/>
    </edge>
    <edge id=":A2_9" function="internal">
        <lane id=":A2_9_0" index="0" speed="10.36" length="24.51" shape="33.60,221.60 26.95,220.65 22.20,217.80 19.35,213.05 18.40,206.40"/>
    </edge>
    <edge id=":A2_10" function="internal">
        <lane id=":A2_10_0" index="0" speed="6.51" length="9.03" shape="28.00,206.40 28.35,208.85 29.40,210.60 31.15,211.65 33.60,212.00"/>
    </edge>
    <edge id=":A2_11" function="internal">
        <lane id=":A2_11_0" index="0" speed="13.89" length="27.20" shape="28.00,206.40 28.00,233.60"/>
        <lane id=":A2_11_1" index="1" speed="13.89" length="27.20" shape="24.80,206.40 24.80,233.60"/>
        <lane id=":A2_11_2" index="2" speed="13.89" length="27.20" shape="21.60,206.40 21.60,233.60"/>
    </edge>
    <edge id=":A2_14" function="internal">
        <lane id=":A2_14_0" index="0" speed="10.36" length="24.51" shape="21.60,206.40 20.65,213.05 17.80,217.80 13.05,220.65 6.40,221.60"/>
    </edge>
    <edge id=":A2_15" function="internal">
        <lane id=":A2_15_0" index="0" speed="6.51" length="9.03" shape="6.40,212.00 8.85,211.65 10.60,210.60 11.65,208.85 12.00,206.40"/>
    </edge>
    <edge id=":A2_16" function="internal">
        <lane id=":A2_16_0" index="0" speed="13.89" length="27.20" shape="6.40,212.00 33.60,212.00"/>
        <lane id=":A2_16_1" index="1" speed="13.89" length="27.20" shape="6.40,215.20 33.60,215.20"/>
        <lane id=":A2_16_2" index="2" speed="13.89" length="27.20" shape="6.40,218.40 33.60,218.40"/>
    </edge>
    <edge id=":A2_19" function="internal">
        <lane id=":A2_19_0" index="0" speed="10.36" length="24.51" shape="6.40,218.40 13.05,219.35 17.80,222.20 20.65,226.95 21.60,233.60"/>
    </edge>
    <edge id=":A3_0" function="internal">
        <lane id=":A3_0_0" index="0" speed="6.51" length="9.03" shape="12.00,333.60 11.65,331.15 10.60,329.40 8.85,328.35 6.40,328.00"/>
    </edge>
    <edge id=":A3_1" function="internal">
        <lane id=":A3_1_0" index="0" speed="13.89" length="27.20" shape="12.00,333.60 12.00,306.40"/>
        <lane id=":A3_1_1" index="1" speed="13.89" length="27.20" shape="15.20,333.60 15.20,306.40"/>
        <lane id=":A3_1_2" index="2" speed="13.89" length="27.20" shape="18.40,333.60 18.40,306.40"/>
    </edge>
    <edge id=":A3_4" function="internal">
        <lane id=":A3_4_0" index="0" speed="10.36" length="24.51" shape="18.40,333.60 19.35,326.95 22.20,322.20 26.95,319.35 33.60,318.40"/>
    </edge>
    <edge id=":A3_5" function="internal">
        <lane id=":A3_5_0" index="0" speed="6.51" length="9.03" shape="33.60,328.00 31.15,328.35 29.40,329.40 28.35,331.15 28.00,333.60"/>
    </edge>
    <edge id=":A3_6" function="internal">
        <lane id=":A3_6_0" index="0" speed="13.89" length="27.20" shape="33.60,328.00 6.40,328.00"/>
        <lane id=":A3_6_1" index="1" speed="13.89" length="27.20" shape="33.60,324.80 6.40,324.80"/>
        <lane id=":A3_6_2" index="2" speed="13.89" length="27.20" shape="33.60,321.60 6.40,321.60"/>
    </edge>
    <edge id=":A3_9" function="internal">
        <lane id=":A3_9_0" index="0" speed="10.36" length="24.51" shape="33.60,321.60 26.95,320.65 22.20,317.80 19.35,313.05 18.40,306.40"/>
    </edge>
    <edge id=":A3_10" function="internal">
        <lane id=":A3_10_0" index="0" speed="6.51" length="9.03" shape="28.00,306.40 28.35,308.85 29.40,310.60 31.15,311.65 33.60,312.00"/>
    </edge>
    <edge id=":A3_11" function="internal">
        <lane id=":A3_11_0" index="0" speed="13.89" length="27.20" shape="28.00,306.40 28.00,333.60"/>
        <lane id=":A3_11_1" index="1" speed="13.89" length="27.20" shape="24.80,306.40 24.80,333.60"/>
        <lane id=":A3_11_2" index="2" speed="13.89" length="27.20" shape="21.60,306.40 21.60,333.60"/>
    </edge>
    <edge id=":A3_14" function="internal">
        <lane id=":A3_14_0" index="0" speed="10.36" length="24.51" shape="21.60,306.40 20.65,313.05 17.80,317.80 13.05,320.65 6.40,321.60"/>
    </edge>
    <edge id=":A3_15" function="internal">
        <lane id=":A3_15_0" index="0" speed="6.51" length="9.03" shape="6.40,312.00 8.85,311.65 10.60,310.60 11.65,308.85 12.00,306.40"/>
    </edge>
    <edge id=":A3_16" function="internal">
        <lane id=":A3_16_0" index="0" speed="13.89" length="27.20" shape="6.40,312.00 33.60,312.00"/>
        <lane id=":A3_16_1" index="1" speed="13.89" length="27.20" shape="6.40,315.20 33.60,315.20"/>
        <lane id=":A3_16_2" index="2" speed="13.89" length="27.20" shape="6.40,318.40 33.60,318.40"/>
    </edge>
    <edge id=":A3_19" function="internal">
        <lane id=":A3_19_0" index="0" speed="10.36" length="24.51" shape="6.40,318.40 13.05,319.35 17.80,322.20 20.65,326.95 21.60,333.60"/>
    </edge>
    <edge id=":A4_0" function="internal">
        <lane id=":A4_0_0" index="0" speed="6.51" length="9.03" shape="12.00,433.60 11.65,431.15 10.60,429.40 8.85,428.35 6.40,428.00"/>
    </edge>
    <edge id=":A4_1" function="internal">
        <lane id=":A4_1_0" index="0" speed="13.89" length="27.20" shape="12.00,433.60 12.00,406.40"/>
        <lane id=":A4_1_1" index="1" speed="13.89" length="27.20" shape="15.20,433.60 15.20,406.40"/>
        <lane id=":A4_1_2" index="2" speed="13.89" length="27.20" shape="18.40,433.60 18.40,406.40"/>
    </edge>
    <edge id=":A4_4" function="internal">
        <lane id=":A4_4_0" index="0" speed="10.36" length="24.51" shape="18.40,433.60 19.35,426.95 22.20,422.20 26.95,419.35 33.60,418.40"/>
    </edge>
    <edge id=":A4_5" function="internal">
        <lane id=":A4_5_0" index="0" speed="6.51" length="9.03" shape="33.60,428.00 31.15,428.35 29.40,429.40 28.35,431.15 28.00,433.60"/>
    </edge>
    <edge id=":A4_6" function="internal">
        <lane id=":A4_6_0" index="0" speed="13.89" length="27.20" shape="33.60,428.00 6.40,428.00"/>
        <lane id=":A4_6_1" index="1" speed="13.89" length="27.20" shape="33.60,424.80 6.40,424.80"/>
        <lane id=":A4_6_2" index="2" speed="13.89" length="27.20" shape="33.60,421.60 6.40,421.60"/>
    </edge>
    <edge id=":A4_9" function="internal">
        <lane id=":A4_9_0" index="0" speed="10.36" length="24.51" shape="33.60,421.60 26.95,420.65 22.20,417.80 19.35,413.05 18.40,406.40"/>
    </edge>
    <edge id=":A4_10" function="internal">
        <lane id=":A4_10_0" index="0" speed="6.51" length="9.03" shape="28.00,406.40 28.35,408.85 29.40,410.60 31.15,411.65 33.60,412.00"/>
    </edge>
    <edge id=":A4_11" function="internal">
        <lane id=":A4_11_0" index="0" speed="13.89" length="27.20" shape="28.00,406.40 28.00,433.60"/>
        <lane id=":A4_11_1" index="1" speed="13.89" length="27.20" shape="24.80,406.40 24.80,433.60"/>
        <lane id=":A4_11_2" index="2" speed="13.89" length="27.20" shape="21.60,406.40 21.60,433.60"/>
    </edge>
    <edge id=":A4_14" function="internal">
        <lane id=":A4_14_0" index="0" speed="10.36" length="24.51" shape="21.60,406.40 20.65,413.05 17.80,417.80 13.05,420.65 6.40,421.60"/>
    </edge>
    <edge id=":A4_15" function="internal">
        <lane id=":A4_15_0" index="0" speed="6.51" length="9.03" shape="6.40,412.00 8.85,411.65 10.60,410.60 11.65,408.85 12.00,406.40"/>
    </edge>
    <edge id=":A4_16" function="internal">
        <lane id=":A4_16_0" index="0" speed="13.89" length="27.20" shape="6.40,412.00 33.60,412.00"/>
        <lane id=":A4_16_1" index="1" speed="13.89" length="27.20" shape="6.40,415.20 33.60,415.20"/>
        <lane id=":A4_16_2" index="2" speed="13.89" length="27.20" shape="6.40,418.40 33.60,418.40"/>
    </edge>
    <edge id=":A4_19" function="internal">
        <lane id=":A4_19_0" index="0" speed="10.36" length="24.51" shape="6.40,418.40 13.05,419.35 17.80,422.20 20.65,426.95 21.60,433.60"/>
    </edge>
    <edge id=":A5_0" function="internal">
        <lane id=":A5_0_0" index="0" speed="6.51" length="9.03" shape="12.00,533.60 11.65,531.15 10.60,529.40 8.85,528.35 6.40,528.00"/>
    </edge>
    <edge id=":A5_1" function="internal">
        <lane id=":A5_1_0" index="0" speed="13.89" length="27.20" shape="12.00,533.60 12.00,506.40"/>
        <lane id=":A5_1_1" index="1" speed="13.89" length="27.20" shape="15.20,533.60 15.20,506.40"/>
        <lane id=":A5_1_2" index="2" speed="13.89" length="27.20" shape="18.40,533.60 18.40,506.40"/>
    </edge>
    <edge id=":A5_4" function="internal">
        <lane id=":A5_4_0" index="0" speed="10.36" length="24.51" shape="18.40,533.60 19.35,526.95 22.20,522.20 26.95,519.35 33.60,518.40"/>
    </edge>
    <edge id=":A5_5" function="internal">
        <lane id=":A5_5_0" index="0" speed="6.51" length="9.03" shape="33.60,528.00 31.15,528.35 29.40,529.40 28.35,531.15 28.00,533.60"/>
    </edge>
    <edge id=":A5_6" function="internal">
        <lane id=":A5_6_0" index="0" speed="13.89" length="27.20" shape="33.60,528.00 6.40,528.00"/>
        <lane id=":A5_6_1" index="1" speed="13.89" length="27.20" shape="33.60,524.80 6.40,524.80"/>
        <lane id=":A5_6_2" index="2" speed="13.89" length="27.20" shape="33.60,521.60 6.40,521.60"/>
    </edge>
    <edge id=":A5_9" function="internal">
        <lane id=":A5_9_0" index="0" speed="10.36" length="24.51" shape="33.60,521.60 26.95,520.65 22.20,517.80 19.35,513.05 18.40,506.40"/>
    </edge>
    <edge id=":A5_10" function="internal">
        <lane id=":A5_10_0" index="0" speed="6.51" length="9.03" shape="28.00,506.40 28.35,508.85 29.40,510.60 31.15,511.65 33.60,512.00"/>
    </edge>
    <edge id=":A5_11" function="internal">
        <lane id=":A5_11_0" index="0" speed="13.89" length="27.20" shape="28.00,506.40 28.00,533.60"/>
        <lane id=":A5_11_1" index="1" speed="13.89" length="27.20" shape="24.80,506.40 24.80,533.60"/>
        <lane id=":A5_11_2" index="2" speed="13.89" length="27.20" shape="21.60,506.40 21.60,533.60"/>
    </edge>
    <edge id=":A5_14" function="internal">
        <lane id=":A5_14_0" index="0" speed="10.36" length="24.51" shape="21.60,506.40 20.65,513.05 17.80,517.80 13.05,520.65 6.40,521.60"/>
    </edge>
    <edge id=":A5_15" function="internal">
        <lane id=":A5_15_0" index="0" speed="6.51" length="9.03" shape="6.40,512.00 8.85,511.65 10.60,510.60 11.65,508.85 12.00,506.40"/>
    </edge>
    <edge id=":A5_16" function="internal">
        <lane id=":A5_16_0" index="0" speed="13.89" length="27.20" shape="6.40,512.00 33.60,512.00"/>
        <lane id=":A5_16_1" index="1" speed="13.89" length="27.20" shape="6.40,515.20 33.60,515.20"/>
        <lane id=":A5_16_2" index="2" speed="13.89" length="27.20" shape="6.40,518.40 33.60,518.40"/>
    </edge>
    <edge id=":A5_19" function="internal">
        <lane id=":A5_19_0" index="0" speed="10.36" length="24.51" shape="6.40,518.40 13.05,519.35 17.80,522.20 20.65,526.95 21.60,533.60"/>
    </edge>
    <edge id=":B0_0" function="internal">
        <lane id=":B0_0_0" index="0" speed="6.51" length="9.03" shape="112.00,33.60 111.65,31.15 110.60,29.40 108.85,28.35 106.40,28.00"/>
    </edge>
    <edge id=":B0_1" function="internal">
        <lane id=":B0_1_0" index="0" speed="13.89" length="27.20" shape="112.00,33.60 112.00,6.40"/>
        <lane id=":B0_1_1" index="1" speed="13.89" length="27.20" shape="115.20,33.60 115.20,6.40"/>
        <lane id=":B0_1_2" index="2" speed="13.89" length="27.20" shape="118.40,33.60 118.40,6.40"/>
    </edge>
    <edge id=":B0_4" function="internal">
        <lane id=":B0_4_0" index="0" speed="10.36" length="24.51" shape="118.40,33.60 119.35,26.95 122.20,22.20 126.95,19.35 133.60,18.40"/>
    </edge>
    <edge id=":B0_5" function="internal">
        <lane id=":B0_5_0" index="0" speed="6.51" length="9.03" shape="133.60,28.00 131.15,28.35 129.40,29.40 128.35,31.15 128.00,33.60"/>
    </edge>
    <edge id=":B0_6" function="internal">
        <lane id=":B0_6_0" index="0" speed="13.89" length="27.20" shape="133.60,28.00 106.40,28.00"/>
        <lane id=":B0_6_1" index="1" speed="13.89" length="27.20" shape="133.60,24.80 106.40,24.80"/>
        <lane id=":B0_6_2" index="2" speed="13.89" length="27.20" shape="133.60,21.60 106.40,21.60"/>
    </edge>
    <edge id=":B0_9" function="internal">
        <lane id=":B0_9_0" index="0" speed="10.36" length="24.51" shape="133.60,21.60 126.95,20.65 122.20,17.80 119.35,13.05 118.40,6.40"/>
    </edge>
    <edge id=":B0_10" function="internal">
        <lane id=":B0_10_0" index="0" speed="6.51" length="9.03" shape="128.00,6.40 128.35,8.85 129.40,10.60 131.15,11.65 133.60,12.00"/>
    </edge>
    <edge id=":B0_11" function="internal">
        <lane id=":B0_11_0" index="0" speed="13.89" length="27.20" shape="128.00,6.40 128.00,33.60"/>
        <lane id=":B0_11_1" index="1" speed="13.89" length="27.20" shape="124.80,6.40 124.80,33.60"/>
        <lane id=":B0_11_2" index="2" speed="13.89" length="27.20" shape="121.60,6.40 121.60,33.60"/>
    </edge>
    <edge id=":B0_14" function="internal">
        <lane id=":B0_14_0" index="0" speed="10.36" length="24.51" shape="121.60,6.40 120.65,13.05 117.80,17.80 113.05,20.65 106.40,21.60"/>
    </edge>
    <edge id=":B0_15" function="internal">
        <lane id=":B0_15_0" index="0" speed="6.51" length="9.03" shape="106.40,12.00 108.85,11.65 110.60,10.60 111.65,8.85 112.00,6.40"/>
    </edge>
    <edge id=":B0_16" function="internal">
        <lane id=":B0_16_0" index="0" speed="13.89" length="27.20" shape="106.40,12.00 133.60,12.00"/>
        <lane id=":B0_16_1" index="1" speed="13.89" length="27.20" shape="106.40,15.20 133.60,15.20"/>
        <lane id=":B0_16_2" index="2" speed="13.89" length="27.20" shape="106.40,18.40 133.60,18.40"/>
    </edge>
    <edge id=":B0_19" function="internal">
        <lane id=":B0_19_0" index="0" speed="10.36" length="24.51" shape="106.40,18.40 113.05,19.35 117.80,22.20 120.65,26.95 121.60,33.60"/>
    </edge>
    <edge id=":B1_0" function="internal">
        <lane id=":B1_0_0" index="0" speed="6.51" length="9.03" shape="112.00,133.60 111.65,131.15 110.60,129.40 108.85,128.35 106.40,128.00"/>
    </edge>
    <edge id=":B1_1" function="internal">
        <lane id=":B1_1_0" index="0" speed="13.89" length="27.20" shape="112.00,133.60 112.00,106.40"/>
        <lane id=":B1_1_1" index="1" speed="13.89" length="27.20" shape="115.20,133.60 115.20,106.40"/>
        <lane id=":B1_1_2" index="2" speed="13.89" length="27.20" shape="118.40,133.60 118.40,106.40"/>
    </edge>
    <edge id=":B1_4" function="internal">
        <lane id=":B1_4_0" index="0" speed="10.36" length="24.51" shape="118.40,133.60 119.35,126.95 122.20,122.20 126.95,119.35 133.60,118.40"/>
    </edge>
    <edge id=":B1_5" function="internal">
        <lane id=":B1_5_0" index="0" speed="6.51" length="9.03" shape="133.60,128.00 131.15,128.35 129.40,129.40 128.35,131.15 128.00,133.60"/>
    </edge>
    <edge id=":B1_6" function="internal">
        <lane id=":B1_6_0" index="0" speed="13.89" length="27.20" shape="133.60,128.00 106.40,128.00"/>
        <lane id=":B1_6_1" index="1" speed="13.89" length="27.20" shape="133.60,124.80 106.40,124.80"/>
        <lane id=":B1_6_2" index="2" speed="13.89" length="27.20" shape="133.60,121.60 106.40,121.60"/>
    </edge>
    <edge id=":B1_9" function="internal">
        <lane id=":B1_9_0" index="0" speed="10.36" length="24.51" shape="133.60,121.60 126.95,120.65 122.20,117.80 119.35,113.05 118.40,106.40"/>
    </edge>
    <edge id=":B1_10" function="internal">
        <lane id=":B1_10_0" index="0" speed="6.51" length="9.03" shape="128.00,106.40 128.35,108.85 129.40,110.60 131.15,111.65 133.60,112.00"/>
    </edge>
    <edge id=":B1_11" function="internal">
        <lane id=":B1_11_0" index="0" speed="13.89" length="27.20" shape="128.00,106.40 128.00,133.60"/>
        <lane id=":B1_11_1" index="1" speed="13.89" length="27.20" shape="124.80,106.40 124.80,133.60"/>
        <lane id=":B1_11_2" index="2" speed="13.89" length="27.20" shape="121.60,106.40 121.60,133.60"/>
    </edge>
    <edge id=":B1_14" function="internal">
        <lane id=":B1_14_0" index="0" speed="10.36" length="24.51" shape="121.60,106.40 120.65,113.05 117.80,117.80 113.05,120.65 106.40,121.60"/>
    </edge>
    <edge id=":B1_15" function="internal">
        <lane id=":B1_15_0" index="0" speed="6.51" length="9.03" shape="106.40,112.00 108.85,111.65 110.60,110.60 111.65,108.85 112.00,106.40"/>
    </edge>
    <edge id=":B1_16" function="internal">
        <lane id=":B1_16_0" index="0" speed="13.89" length="27.20" shape="106.40,112.00 133.60,112.00"/>
        <lane id=":B1_16_1" index="1" speed="13.89" length="27.20" shape="106.40,115.20 133.60,115.20"/>
        <lane id=":B1_16_2" index="2" speed="13.89" length="27.20" shape="106.40,118.40 133.60,118.40"/>
    </edge>
    <edge id=":B1_19" function="internal">
        <lane id=":B1_19_0" index="0" speed="10.36" length="24.51" shape="106.40,118.40 113.05,119.35 117.80,122.20 120.65,126.95 121.60,133.60"/>
    </edge>
    <edge id=":B2_0" function="internal">
        <lane id=":B2_0_0" index="0" speed="6.51" length="9.03" shape="112.00,233.60 111.65,231.15 110.60,229.40 108.85,228.35 106.40,228.00"/>
    </edge>
    <edge id=":B2_1" function="internal">
        <lane id=":B2_1_0" index="0" speed="13.89" length="27.20" shape="112.00,233.60 112.00,206.40"/>
        <lane id=":B2_1_1" index="1" speed="13.89" length="27.20" shape="115.20,233.60 115.20,206.40"/>
        <lane id=":B2_1_2" index="2" speed="13.89" length="27.20" shape="118.40,233.60 118.40,206.40"/>
    </edge>
    <edge id=":B2_4" function="internal">
        <lane id=":B2_4_0" index="0" speed="10.36" length="24.51" shape="118.40,233.60 119.35,226.95 122.20,222.20 126.95,219.35 133.60,218.40"/>
    </edge>
    <edge id=":B2_5" function="internal">
        <lane id=":B2_5_0" index="0" speed="6.51" length="9.03" shape="133.60,228.00 131.15,228.35 129.40,229.40 128.35,231.15 128.00,233.60"/>
    </edge>
    <edge id=":B2_6" function="internal">
        <lane id=":B2_6_0" index="0" speed="13.89" length="27.20" shape="133.60,228.00 106.40,228.00"/>
        <lane id=":B2_6_1" index="1" speed="13.89" length="27.20" shape="133.60,224.80 106.40,224.80"/>
        <lane id=":B2_6_2" index="2" speed="13.89" length="27.20" shape="133.60,221.60 106.40,221.60"/>
    </edge>
    <edge id=":B2_9" function="internal">
        <lane id=":B2_9_0" index="0" speed="10.36" length="24.51" shape="133.60,221.60 126.95,220.65 122.20,217.80 119.35,213.05 118.40,206.40"/>
    </edge>
    <edge id=":B2_10" function="internal">
        <lane id=":B2_10_0" index="0" speed="6.51" length="9.03" shape="128.00,206.40 128.35,208.85 129.40,210.60 131.15,211.65 133.60,212.00"/>
    </edge>
    <edge id=":B2_11" function="internal">
        <lane id=":B2_11_0" index="0" speed="13.89" length="27.20" shape="128.00,206.40 128.00,233.60"/>
        <lane id=":B2_11_1" index="1" speed="13.89" length="27.20" shape="124.80,206.40 124.80,233.60"/>
        <lane id=":B2_11_2" index="2" speed="13.89" length="27.20" shape="121.60,206.40 121.60,233.60"/>
    </edge>
    <edge id=":B2_14" function="internal">
        <lane id=":B2_14_0" index="0" speed="10.36" length="24.51" shape="121.60,206.40 120.65,213.05 117.80,217.80 113.05,220.65 106.40,221.60"/>
    </edge>
    <edge id=":B2_15" function="internal">
        <lane id=":B2_15_0" index="0" speed="6.51" length="9.03" shape="106.40,212.00 108.85,211.65 110.60,210.60 111.65,208.85 112.00,206.40"/>
    </edge>
    <edge id=":B2_16" function="internal">
        <lane id=":B2_16_0" index="0" speed="13.89" length="27.20" shape="106.40,212.00 133.60,212.00"/>
        <lane id=":B2_16_1" index="1" speed="13.89" length="27.20" shape="106.40,215.20 133.60,215.20"/>
        <lane id=":B2_16_2" index="2" speed="13.89" length="27.20" shape="106.40,218.40 133.60,218.40"/>
    </edge>
    <edge id=":B2_19" function="internal">
        <lane id=":B2_19_0" index="0" speed="10.36" length="24.51" shape="106.40,218.40 113.05,219.35 117.80,222.20 120.65,226.95 121.60,233.60"/>
    </edge>
    <edge id=":B3_0" function="internal">
        <lane id=":B3_0_0" index="0" speed="6.51" length="9.03" shape="112.00,333.60 111.65,331.15 110.60,329.40 108.85,328.35 106.40,328.00"/>
    </edge>
    <edge id=":B3_1" function="internal">
        <lane id=":B3_1_0" index="0" speed="13.89" length="27.20" shape="112.00,333.60 112.00,306.40"/>
        <lane id=":B3_1_1" index="1" speed="13.89" length="27.20" shape="115.20,333.60 115.20,306.40"/>
        <lane id=":B3_1_2" index="2" speed="13.89" length="27.20" shape="118.40,333.60 118.40,306.40"/>
    </edge>
    <edge id=":B3_4" function="internal">
        <lane id=":B3_4_0" index="0" speed="10.36" length="24.51" shape="118.40,333.60 119.35,326.95 122.20,322.20 126.95,319.35 133.60,318.40"/>
    </edge>
    <edge id=":B3_5" function="internal">
        <lane id=":B3_5_0" index="0" speed="6.51" length="9.03" shape="133.60,328.00 131.15,328.35 129.40,329.40 128.35,331.15 128.00,333.60"/>
    </edge>
    <edge id=":B3_6" function="internal">
        <lane id=":B3_6_0" index="0" speed="13.89" length="27.20" shape="133.60,328.00 106.40,328.00"/>
        <lane id=":B3_6_1" index="1" speed="13.89" length="27.20" shape="133.60,324.80 106.40,324.80"/>
        <lane id=":B3_6_2" index="2" speed="13.89" length="27.20" shape="133.60,321.60 106.40,321.60"/>
    </edge>
    <edge id=":B3_9" function="internal">
        <lane id=":B3_9_0" index="0" speed="10.36" length="24.51" shape="133.60,321.60 126.95,320.65 122.20,317.80 119.35,313.05 118.40,306.40"/>
    </edge>
    <edge id=":B3_10" function="internal">